/*--------------------------------*- C++ -*----------------------------------*\
| =========                 |                                                 |
| \\      /  F ield         | OpenFOAM: The Open Source CFD Toolbox           |
|  \\    /   O peration     | Version:  2.2.0                                 |
|   \\  /    A nd           | Web:      www.OpenFOAM.org                      |
|    \\/     M anipulation  |                                                 |
\*---------------------------------------------------------------------------*/
FoamFile
{
    version     2.0;
    format      ascii;
    class       dictionary;
    location    "constant";
    object      dynamicMeshDict;
}
// * * * * * * * * * * * * * * * * * * * * * * * * * * * * * * * * * * * * * //

dynamicFvMesh   multiSolidBodyMotionFvMesh;

motionSolverLibs ( "libfvMotionSolvers.so" );

multiSolidBodyMotionFvMeshCoeffs
{
    
    cylinder
    {
        solidBodyMotionFunction  rotatingMotion;
        rotatingMotionCoeffs
        {
            CofG        (0 0 0);
            radialVelocity (0 -75 0); // deg/s
        }
    }
}


// ************************************************************************* //
