/*--------------------------------*- C++ -*----------------------------------*\
| =========                 |                                                 |
| \\      /  F ield         | OpenFOAM: The Open Source CFD Toolbox           |
|  \\    /   O peration     | Version:  2.2.0                                 |
|   \\  /    A nd           | Web:      www.OpenFOAM.org                      |
|    \\/     M anipulation  |                                                 |
\*---------------------------------------------------------------------------*/
FoamFile
{
    version     2.0;
    format      ascii;
    class       dictionary;
    object      blockMeshDict;
}

// * * * * * * * * * * * * * * * * * * * * * * * * * * * * * * * * * * * * * //

convertToMeters 445.455;

vertices
(
    (-0.3 -0.81 -0.3)
    ( 0.3 -0.81 -0.3)
    ( 0.3  0.21 -0.3)
    (-0.3  0.21 -0.3)
    (-0.3 -0.81  0.3)
    ( 0.3 -0.81  0.3)
    ( 0.3  0.21  0.3)
    (-0.3  0.21  0.3)
);

blocks
(
    hex (0 1 2 3 4 5 6 7) (12 20 12) simpleGrading (1 1 1)
);

edges
(
);

boundary
(
);

// ************************************************************************* //
